Version 4
SHEET 1 1856 840
WIRE -1136 -288 -1200 -288
WIRE -1008 -288 -1056 -288
WIRE -960 -288 -1008 -288
WIRE -912 -288 -960 -288
WIRE -592 -288 -624 -288
WIRE -560 -288 -592 -288
WIRE -432 -288 -480 -288
WIRE -384 -288 -432 -288
WIRE -304 -288 -384 -288
WIRE -256 -288 -304 -288
WIRE -304 -208 -304 -288
WIRE -272 -208 -304 -208
WIRE -176 -208 -208 -208
WIRE -64 -208 -176 -208
WIRE -16 -208 -64 -208
WIRE -1200 -192 -1200 -288
WIRE -1008 -192 -1008 -288
WIRE -384 -192 -384 -288
WIRE -64 -160 -64 -208
WIRE -176 -144 -176 -208
WIRE -960 -128 -960 -288
WIRE -912 -128 -960 -128
WIRE -432 -128 -432 -288
WIRE -432 -128 -624 -128
WIRE -1200 -32 -1200 -112
WIRE -1008 -32 -1008 -128
WIRE -768 -32 -768 -64
WIRE -384 -32 -384 -128
WIRE -176 -32 -176 -80
WIRE -64 -32 -64 -80
FLAG -1200 -32 0
FLAG -256 -288 OUT
IOPIN -256 -288 Out
FLAG -384 -32 0
FLAG -768 -32 0
FLAG -64 -32 0
FLAG -592 -288 sw
FLAG -1008 -32 0
FLAG -176 -32 0
FLAG -16 -208 OUT_FILT
IOPIN -16 -208 Out
SYMBOL Misc\\EuropeanResistor -80 -176 R0
WINDOW 0 33 48 Left 2
WINDOW 3 33 65 Left 2
SYMATTR InstName R1
SYMATTR Value 66K
SYMBOL cap -400 -192 R0
WINDOW 0 40 31 Left 2
WINDOW 3 32 48 Left 2
SYMATTR InstName C1
SYMATTR Value 10µ
SYMBOL PowerProducts\\ADP2108-3.3 -768 -208 R0
SYMATTR InstName U1
SYMBOL ind -576 -272 R270
WINDOW 0 32 56 VTop 2
WINDOW 3 5 56 VBottom 2
SYMATTR InstName L1
SYMATTR Value 1.0µ
SYMBOL voltage -1200 -208 R0
WINDOW 0 48 48 Left 2
WINDOW 3 48 72 Left 2
WINDOW 123 0 0 Left 2
WINDOW 39 48 96 Left 2
SYMATTR InstName V1
SYMATTR Value 5.5V
SYMBOL cap -992 -128 R180
WINDOW 0 47 42 Left 2
WINDOW 3 39 24 Left 2
SYMATTR InstName C2
SYMATTR Value 4.7µ
SYMBOL res -1040 -304 R90
WINDOW 0 0 56 VBottom 2
WINDOW 3 32 56 VTop 2
SYMATTR InstName R2
SYMATTR Value 0.01
SYMBOL FerriteBead -240 -208 R90
WINDOW 0 -16 0 VBottom 2
SYMATTR InstName L2
SYMATTR Value 2.5µ
SYMATTR SpiceLine Ipk=1 Rser=0.157 Rpar=605 Cpar=1.1p
SYMBOL cap -192 -144 R0
WINDOW 0 40 31 Left 2
WINDOW 3 32 48 Left 2
SYMATTR InstName C3
SYMATTR Value 1100n
TEXT -704 -32 Left 2 !.tran 50m
